@<TRIPOS>MOLECULE
GDP
   40    42     1     0     0
SMALL
bcc


@<TRIPOS>ATOM
      1 PB           8.0190    -3.0200   -15.7960 p5         1 GDP       1.399900
      2 O1B          8.9290    -2.3880   -16.8480 o          1 GDP      -0.913500
      3 O2B          7.0350    -2.0170   -15.2200 o          1 GDP      -0.913500
      4 O3B          7.4030    -4.3250   -16.2330 o          1 GDP      -0.913500
      5 O3A          8.9800    -3.3480   -14.4930 os         1 GDP      -0.770800
      6 PA           9.6860    -4.7570   -14.1340 p5         1 GDP       1.567800
      7 O1A         10.4730    -5.2180   -15.3420 o          1 GDP      -0.677000
      8 O2A          8.7380    -5.6870   -13.4830 o          1 GDP      -0.677000
      9 O5'         10.6970    -4.2780   -12.9940 os         1 GDP      -0.591200
     10 C5'         11.7580    -3.3380   -13.2710 c3         1 GDP       0.183400
     11 C4'         12.9060    -3.5850   -12.3250 c3         1 GDP       0.087100
     12 O4'         12.4820    -3.2570   -10.9590 os         1 GDP      -0.427600
     13 C3'         13.4200    -5.0170   -12.2270 c3         1 GDP       0.065100
     14 O3'         14.8370    -4.9820   -11.9480 oh         1 GDP      -0.595800
     15 C2'         12.6480    -5.6130   -11.0330 c3         1 GDP       0.084100
     16 O2'         13.2850    -6.6980   -10.4110 oh         1 GDP      -0.618800
     17 C1'         12.5900    -4.4250   -10.1170 c3         1 GDP       0.273800
     18 N9          11.4100    -4.4260    -9.2530 na         1 GDP      -0.199900
     19 C8          10.1040    -4.5170    -9.6660 cc         1 GDP       0.338400
     20 N7           9.2560    -4.4180    -8.5980 nd         1 GDP      -0.791000
     21 C5          10.0770    -4.2570    -7.4900 cd         1 GDP       0.266800
     22 C6           9.8030    -4.0440    -6.0880 c          1 GDP       0.615000
     23 O6           8.6380    -4.0060    -5.6130 o          1 GDP      -0.720500
     24 N1          10.9110    -3.8830    -5.3470 n          1 GDP      -0.472400
     25 C2          12.1930    -3.8750    -5.8160 cd         1 GDP       0.462800
     26 N2          13.1670    -3.7400    -4.9090 nh         1 GDP      -0.854800
     27 N3          12.5120    -4.0620    -7.1100 nc         1 GDP      -0.567100
     28 C4          11.4590    -4.2170    -7.9330 cc         1 GDP      -0.060200
     29 HO3'        14.9970    -5.4280   -11.2540 ho         1 GDP       0.380000
     30 HO2'        12.8130    -6.9710    -9.7720 ho         1 GDP       0.403000
     31 HN22        13.9900    -3.7300    -5.1600 hn         1 GDP       0.353800
     32 HN21        12.9710    -3.6630    -4.0750 hn         1 GDP       0.353800
     33 H5''        12.0560    -3.4330   -14.1890 h1         1 GDP       0.068200
     34 HN1         10.8030    -3.7750    -4.5010 hn         1 GDP       0.303500
     35 H8           9.8220    -4.6350   -10.5870 h5         1 GDP       0.144100
     36 H5'         11.4330    -2.4300   -13.1710 h1         1 GDP       0.068200
     37 H4'         13.6160    -3.0350   -12.6910 h1         1 GDP       0.033700
     38 H3'         13.2920    -5.5350   -13.0370 h1         1 GDP       0.166700
     39 H2'         11.7930    -5.9910   -11.2930 h1         1 GDP       0.111700
     40 H1'         13.3790    -4.4410    -9.5530 h2         1 GDP       0.037700
@<TRIPOS>BOND
     1     1     2 1   
     2     1     3 1   
     3     1     4 1   
     4     1     5 1   
     5     5     6 1   
     6     6     7 1   
     7     6     8 1   
     8     6     9 1   
     9     9    10 1   
    10    10    11 1   
    11    10    33 1   
    12    10    36 1   
    13    11    12 1   
    14    11    13 1   
    15    11    37 1   
    16    12    17 1   
    17    13    14 1   
    18    13    15 1   
    19    13    38 1   
    20    14    29 1   
    21    15    16 1   
    22    15    17 1   
    23    15    39 1   
    24    16    30 1   
    25    17    18 1   
    26    17    40 1   
    27    18    19 1   
    28    18    28 1   
    29    19    20 2   
    30    19    35 1   
    31    20    21 1   
    32    21    22 1   
    33    21    28 2   
    34    22    23 2   
    35    22    24 1   
    36    24    25 1   
    37    24    34 1   
    38    25    26 1   
    39    25    27 2   
    40    26    31 1   
    41    26    32 1   
    42    27    28 1   
@<TRIPOS>SUBSTRUCTURE
     1 GDP         1 TEMP              0 ****  ****    0 ROOT
