@<TRIPOS>MOLECULE
GTP
   44    46     1     0     0
SMALL
bcc


@<TRIPOS>ATOM
      1 C4'         10.1310    30.4830    -3.4240 c3         1 GTP       0.068100
      2 O4'         10.5070    30.0310    -2.0460 os         1 GTP      -0.437600
      3 C3'         10.9130    31.7000    -3.7420 c3         1 GTP       0.119100
      4 C2'         11.9840    31.8050    -2.7640 c3         1 GTP       0.112100
      5 C1'         11.7130    30.7990    -1.6660 c3         1 GTP       0.237800
      6 C5'         10.4420    29.3350    -4.2640 c3         1 GTP       0.198400
      7 O5'         10.2090    29.5940    -5.6120 os         1 GTP      -0.597200
      8 PA          11.1190    28.7540    -6.7220 p5         1 GTP       1.608800
      9 O1A         12.0520    27.8510    -6.0390 o          1 GTP      -0.685000
     10 O2A         12.0180    29.6520    -7.4440 o          1 GTP      -0.685000
     11 O3A         10.1240    27.9260    -7.7620 os         1 GTP      -0.779800
     12 PB           9.2450    26.6110    -7.2250 p5         1 GTP       1.679800
     13 O1B          8.7720    26.7950    -5.8570 o          1 GTP      -0.919000
     14 O2B         10.1190    25.4330    -7.0850 o          1 GTP      -0.919000
     15 O3B          7.9780    26.2880    -8.2820 os         1 GTP      -0.796800
     16 PG           7.2550    24.7790    -8.3490 p5         1 GTP       1.446900
     17 O1G          7.0780    24.1420    -7.0400 o          1 GTP      -0.946833
     18 O2G          5.9150    24.7870    -8.9530 o          1 GTP      -0.946833
     19 O3G          8.0210    23.7880    -9.1520 o          1 GTP      -0.946833
     20 O3'          9.9980    32.8230    -3.6000 oh         1 GTP      -0.669800
     21 N9          12.8820    30.0090    -1.5050 na         1 GTP      -0.196900
     22 C4          13.7640    30.2710    -0.5090 cc         1 GTP      -0.056200
     23 N3          13.7120    31.2600     0.4770 nc         1 GTP      -0.554100
     24 C5          14.7710    29.2940    -0.6850 cd         1 GTP       0.255800
     25 C2          14.8520    31.1990     1.3670 cd         1 GTP       0.451800
     26 N1          15.9240    30.2140     1.2370 n          1 GTP      -0.472400
     27 C6          15.8690    29.2830     0.2190 c          1 GTP       0.613000
     28 O6          16.8860    28.3260     0.0730 o          1 GTP      -0.737500
     29 N7          14.4200    28.4450    -1.8620 nd         1 GTP      -0.795000
     30 C8          13.2330    28.9950    -2.2760 cc         1 GTP       0.322400
     31 N2          14.9170    32.1740     2.4350 nh         1 GTP      -0.855800
     32 O2'         12.0380    33.1420    -2.2520 oh         1 GTP      -0.620800
     33 HO3'         9.5520    32.7340    -2.8940 ho         1 GTP       0.511000
     34 HO2'        11.2870    33.5070    -2.3420 ho         1 GTP       0.420000
     35 HN22        14.2920    32.7590     2.5220 hn         1 GTP       0.353800
     36 HN21        15.5800    32.1690     2.9820 hn         1 GTP       0.353800
     37 H5''         9.9060    28.5760    -3.9840 h1         1 GTP       0.032200
     38 HN1         16.5830    30.2140     1.7900 hn         1 GTP       0.298500
     39 H8          12.7190    28.6800    -3.0360 h5         1 GTP       0.145100
     40 H5'         11.3710    29.0870    -4.1390 h1         1 GTP       0.032200
     41 H4'          9.2020    30.7340    -3.5440 h1         1 GTP       0.127700
     42 H3'         11.2940    31.6800    -4.6340 h1         1 GTP       0.072700
     43 H2'         12.8450    31.6120    -3.1660 h1         1 GTP       0.109700
     44 H1'         11.5280    31.2060    -0.8050 h2         1 GTP       0.048700
@<TRIPOS>BOND
     1     1     2 1   
     2     1     3 1   
     3     1     6 1   
     4     1    41 1   
     5     2     5 1   
     6     3     4 1   
     7     3    20 1   
     8     3    42 1   
     9     4     5 1   
    10     4    32 1   
    11     4    43 1   
    12     5    21 1   
    13     5    44 1   
    14     6     7 1   
    15     6    37 1   
    16     6    40 1   
    17     7     8 1   
    18     8     9 1   
    19     8    10 1   
    20     8    11 1   
    21    11    12 1   
    22    12    13 1   
    23    12    14 1   
    24    12    15 1   
    25    15    16 1   
    26    16    17 1   
    27    16    18 1   
    28    16    19 1   
    29    20    33 1   
    30    21    22 1   
    31    21    30 1   
    32    22    23 1   
    33    22    24 2   
    34    23    25 2   
    35    24    27 1   
    36    24    29 1   
    37    25    26 1   
    38    25    31 1   
    39    26    27 1   
    40    26    38 1   
    41    27    28 2   
    42    29    30 2   
    43    30    39 1   
    44    31    35 1   
    45    31    36 1   
    46    32    34 1   
@<TRIPOS>SUBSTRUCTURE
     1 GTP         1 TEMP              0 ****  ****    0 ROOT
